<routes>
  <vType id="type1" length="5" accel="3.5" decel="7.5" sigma="0.5" minGap="2.0" maxSpeed="12"/>
  <flow id="f_0_0" departPos="random_free" from="np12_nt24" to="nt2_np2" begin="0" end="300" vehsPerHour="132" type="type1"/>
  <flow id="f_0_1" departPos="random_free" from="np13_nt23" to="nt3_np3" begin="0" end="300" vehsPerHour="132" type="type1"/>
  <flow id="f_0_2" departPos="random_free" from="np14_nt22" to="nt4_np4" begin="0" end="300" vehsPerHour="132" type="type1"/>
  <flow id="f_0_3" departPos="random_free" from="np16_nt21" to="nt5_np6" begin="0" end="300" vehsPerHour="132" type="type1"/>
  <flow id="f_0_4" departPos="random_free" from="np18_nt11" to="nt15_np8" begin="0" end="300" vehsPerHour="132" type="type1"/>
  <flow id="f_0_5" departPos="random_free" from="np20_nt1" to="nt25_np10" begin="0" end="300" vehsPerHour="132" type="type1"/>
  <flow id="f_1_0" departPos="random_free" from="np12_nt24" to="nt2_np2" begin="300" end="600" vehsPerHour="220" type="type1"/>
  <flow id="f_1_1" departPos="random_free" from="np13_nt23" to="nt3_np3" begin="300" end="600" vehsPerHour="220" type="type1"/>
  <flow id="f_1_2" departPos="random_free" from="np14_nt22" to="nt4_np4" begin="300" end="600" vehsPerHour="220" type="type1"/>
  <flow id="f_1_3" departPos="random_free" from="np16_nt21" to="nt5_np6" begin="300" end="600" vehsPerHour="220" type="type1"/>
  <flow id="f_1_4" departPos="random_free" from="np18_nt11" to="nt15_np8" begin="300" end="600" vehsPerHour="220" type="type1"/>
  <flow id="f_1_5" departPos="random_free" from="np20_nt1" to="nt25_np10" begin="300" end="600" vehsPerHour="220" type="type1"/>
  <flow id="f_2_0" departPos="random_free" from="np12_nt24" to="nt2_np2" begin="600" end="900" vehsPerHour="308" type="type1"/>
  <flow id="f_2_1" departPos="random_free" from="np13_nt23" to="nt3_np3" begin="600" end="900" vehsPerHour="308" type="type1"/>
  <flow id="f_2_2" departPos="random_free" from="np14_nt22" to="nt4_np4" begin="600" end="900" vehsPerHour="308" type="type1"/>
  <flow id="f_2_3" departPos="random_free" from="np16_nt21" to="nt5_np6" begin="600" end="900" vehsPerHour="308" type="type1"/>
  <flow id="f_2_4" departPos="random_free" from="np18_nt11" to="nt15_np8" begin="600" end="900" vehsPerHour="308" type="type1"/>
  <flow id="f_2_5" departPos="random_free" from="np20_nt1" to="nt25_np10" begin="600" end="900" vehsPerHour="308" type="type1"/>
  <flow id="f_3_0" departPos="random_free" from="np12_nt24" to="nt2_np2" begin="900" end="1200" vehsPerHour="220" type="type1"/>
  <flow id="f_3_1" departPos="random_free" from="np13_nt23" to="nt3_np3" begin="900" end="1200" vehsPerHour="220" type="type1"/>
  <flow id="f_3_2" departPos="random_free" from="np14_nt22" to="nt4_np4" begin="900" end="1200" vehsPerHour="220" type="type1"/>
  <flow id="f_3_3" departPos="random_free" from="np16_nt21" to="nt5_np6" begin="900" end="1200" vehsPerHour="220" type="type1"/>
  <flow id="f_3_4" departPos="random_free" from="np18_nt11" to="nt15_np8" begin="900" end="1200" vehsPerHour="220" type="type1"/>
  <flow id="f_3_5" departPos="random_free" from="np20_nt1" to="nt25_np10" begin="900" end="1200" vehsPerHour="220" type="type1"/>
  <flow id="f_3_6" departPos="random_free" from="np2_nt2" to="nt22_np14" begin="900" end="1200" vehsPerHour="111" type="type1"/>
  <flow id="f_3_7" departPos="random_free" from="np3_nt3" to="nt23_np13" begin="900" end="1200" vehsPerHour="111" type="type1"/>
  <flow id="f_3_8" departPos="random_free" from="np4_nt4" to="nt24_np12" begin="900" end="1200" vehsPerHour="111" type="type1"/>
  <flow id="f_3_9" departPos="random_free" from="np6_nt5" to="nt1_np20" begin="900" end="1200" vehsPerHour="111" type="type1"/>
  <flow id="f_3_10" departPos="random_free" from="np8_nt15" to="nt11_np18" begin="900" end="1200" vehsPerHour="111" type="type1"/>
  <flow id="f_3_11" departPos="random_free" from="np10_nt25" to="nt21_np16" begin="900" end="1200" vehsPerHour="111" type="type1"/>
  <flow id="f_3_special_0_0" departPos="random_free" from="np16_nt21" to="nt2_np2" begin="900" end="1200" vehsPerHour="1800" type="type1"/>
  <flow id="f_4_0" departPos="random_free" from="np12_nt24" to="nt2_np2" begin="1200" end="1500" vehsPerHour="176" type="type1"/>
  <flow id="f_4_1" departPos="random_free" from="np13_nt23" to="nt3_np3" begin="1200" end="1500" vehsPerHour="176" type="type1"/>
  <flow id="f_4_2" departPos="random_free" from="np14_nt22" to="nt4_np4" begin="1200" end="1500" vehsPerHour="176" type="type1"/>
  <flow id="f_4_3" departPos="random_free" from="np16_nt21" to="nt5_np6" begin="1200" end="1500" vehsPerHour="176" type="type1"/>
  <flow id="f_4_4" departPos="random_free" from="np18_nt11" to="nt15_np8" begin="1200" end="1500" vehsPerHour="176" type="type1"/>
  <flow id="f_4_5" departPos="random_free" from="np20_nt1" to="nt25_np10" begin="1200" end="1500" vehsPerHour="176" type="type1"/>
  <flow id="f_4_6" departPos="random_free" from="np2_nt2" to="nt22_np14" begin="1200" end="1500" vehsPerHour="185" type="type1"/>
  <flow id="f_4_7" departPos="random_free" from="np3_nt3" to="nt23_np13" begin="1200" end="1500" vehsPerHour="185" type="type1"/>
  <flow id="f_4_8" departPos="random_free" from="np4_nt4" to="nt24_np12" begin="1200" end="1500" vehsPerHour="185" type="type1"/>
  <flow id="f_4_9" departPos="random_free" from="np6_nt5" to="nt1_np20" begin="1200" end="1500" vehsPerHour="185" type="type1"/>
  <flow id="f_4_10" departPos="random_free" from="np8_nt15" to="nt11_np18" begin="1200" end="1500" vehsPerHour="185" type="type1"/>
  <flow id="f_4_11" departPos="random_free" from="np10_nt25" to="nt21_np16" begin="1200" end="1500" vehsPerHour="185" type="type1"/>
  <flow id="f_5_0" departPos="random_free" from="np12_nt24" to="nt2_np2" begin="1500" end="1800" vehsPerHour="132" type="type1"/>
  <flow id="f_5_1" departPos="random_free" from="np13_nt23" to="nt3_np3" begin="1500" end="1800" vehsPerHour="132" type="type1"/>
  <flow id="f_5_2" departPos="random_free" from="np14_nt22" to="nt4_np4" begin="1500" end="1800" vehsPerHour="132" type="type1"/>
  <flow id="f_5_3" departPos="random_free" from="np16_nt21" to="nt5_np6" begin="1500" end="1800" vehsPerHour="132" type="type1"/>
  <flow id="f_5_4" departPos="random_free" from="np18_nt11" to="nt15_np8" begin="1500" end="1800" vehsPerHour="132" type="type1"/>
  <flow id="f_5_5" departPos="random_free" from="np20_nt1" to="nt25_np10" begin="1500" end="1800" vehsPerHour="132" type="type1"/>
  <flow id="f_5_6" departPos="random_free" from="np2_nt2" to="nt22_np14" begin="1500" end="1800" vehsPerHour="259" type="type1"/>
  <flow id="f_5_7" departPos="random_free" from="np3_nt3" to="nt23_np13" begin="1500" end="1800" vehsPerHour="259" type="type1"/>
  <flow id="f_5_8" departPos="random_free" from="np4_nt4" to="nt24_np12" begin="1500" end="1800" vehsPerHour="259" type="type1"/>
  <flow id="f_5_9" departPos="random_free" from="np6_nt5" to="nt1_np20" begin="1500" end="1800" vehsPerHour="259" type="type1"/>
  <flow id="f_5_10" departPos="random_free" from="np8_nt15" to="nt11_np18" begin="1500" end="1800" vehsPerHour="259" type="type1"/>
  <flow id="f_5_11" departPos="random_free" from="np10_nt25" to="nt21_np16" begin="1500" end="1800" vehsPerHour="259" type="type1"/>
  <flow id="f_5_special_0_0" departPos="random_free" from="np6_nt5" to="nt22_np14" begin="1500" end="1800" vehsPerHour="1800" type="type1"/>
  <flow id="f_6_0" departPos="random_free" from="np12_nt24" to="nt2_np2" begin="1800" end="2100" vehsPerHour="88" type="type1"/>
  <flow id="f_6_1" departPos="random_free" from="np13_nt23" to="nt3_np3" begin="1800" end="2100" vehsPerHour="88" type="type1"/>
  <flow id="f_6_2" departPos="random_free" from="np14_nt22" to="nt4_np4" begin="1800" end="2100" vehsPerHour="88" type="type1"/>
  <flow id="f_6_3" departPos="random_free" from="np16_nt21" to="nt5_np6" begin="1800" end="2100" vehsPerHour="88" type="type1"/>
  <flow id="f_6_4" departPos="random_free" from="np18_nt11" to="nt15_np8" begin="1800" end="2100" vehsPerHour="88" type="type1"/>
  <flow id="f_6_5" departPos="random_free" from="np20_nt1" to="nt25_np10" begin="1800" end="2100" vehsPerHour="88" type="type1"/>
  <flow id="f_6_6" departPos="random_free" from="np2_nt2" to="nt22_np14" begin="1800" end="2100" vehsPerHour="185" type="type1"/>
  <flow id="f_6_7" departPos="random_free" from="np3_nt3" to="nt23_np13" begin="1800" end="2100" vehsPerHour="185" type="type1"/>
  <flow id="f_6_8" departPos="random_free" from="np4_nt4" to="nt24_np12" begin="1800" end="2100" vehsPerHour="185" type="type1"/>
  <flow id="f_6_9" departPos="random_free" from="np6_nt5" to="nt1_np20" begin="1800" end="2100" vehsPerHour="185" type="type1"/>
  <flow id="f_6_10" departPos="random_free" from="np8_nt15" to="nt11_np18" begin="1800" end="2100" vehsPerHour="185" type="type1"/>
  <flow id="f_6_11" departPos="random_free" from="np10_nt25" to="nt21_np16" begin="1800" end="2100" vehsPerHour="185" type="type1"/>
  <flow id="f_7_0" departPos="random_free" from="np2_nt2" to="nt22_np14" begin="2100" end="2400" vehsPerHour="148" type="type1"/>
  <flow id="f_7_1" departPos="random_free" from="np3_nt3" to="nt23_np13" begin="2100" end="2400" vehsPerHour="148" type="type1"/>
  <flow id="f_7_2" departPos="random_free" from="np4_nt4" to="nt24_np12" begin="2100" end="2400" vehsPerHour="148" type="type1"/>
  <flow id="f_7_3" departPos="random_free" from="np6_nt5" to="nt1_np20" begin="2100" end="2400" vehsPerHour="148" type="type1"/>
  <flow id="f_7_4" departPos="random_free" from="np8_nt15" to="nt11_np18" begin="2100" end="2400" vehsPerHour="148" type="type1"/>
  <flow id="f_7_5" departPos="random_free" from="np10_nt25" to="nt21_np16" begin="2100" end="2400" vehsPerHour="148" type="type1"/>
  <flow id="f_8_0" departPos="random_free" from="np2_nt2" to="nt22_np14" begin="2400" end="2700" vehsPerHour="111" type="type1"/>
  <flow id="f_8_1" departPos="random_free" from="np3_nt3" to="nt23_np13" begin="2400" end="2700" vehsPerHour="111" type="type1"/>
  <flow id="f_8_2" departPos="random_free" from="np4_nt4" to="nt24_np12" begin="2400" end="2700" vehsPerHour="111" type="type1"/>
  <flow id="f_8_3" departPos="random_free" from="np6_nt5" to="nt1_np20" begin="2400" end="2700" vehsPerHour="111" type="type1"/>
  <flow id="f_8_4" departPos="random_free" from="np8_nt15" to="nt11_np18" begin="2400" end="2700" vehsPerHour="111" type="type1"/>
  <flow id="f_8_5" departPos="random_free" from="np10_nt25" to="nt21_np16" begin="2400" end="2700" vehsPerHour="111" type="type1"/>
  <flow id="f_9_0" departPos="random_free" from="np2_nt2" to="nt22_np14" begin="2700" end="3000" vehsPerHour="74" type="type1"/>
  <flow id="f_9_1" departPos="random_free" from="np3_nt3" to="nt23_np13" begin="2700" end="3000" vehsPerHour="74" type="type1"/>
  <flow id="f_9_2" departPos="random_free" from="np4_nt4" to="nt24_np12" begin="2700" end="3000" vehsPerHour="74" type="type1"/>
  <flow id="f_9_3" departPos="random_free" from="np6_nt5" to="nt1_np20" begin="2700" end="3000" vehsPerHour="74" type="type1"/>
  <flow id="f_9_4" departPos="random_free" from="np8_nt15" to="nt11_np18" begin="2700" end="3000" vehsPerHour="74" type="type1"/>
  <flow id="f_9_5" departPos="random_free" from="np10_nt25" to="nt21_np16" begin="2700" end="3000" vehsPerHour="74" type="type1"/>
</routes>
